data_crystal

_audit_creation_method 'AiiDA-DDEC plugin'

_cell_length_a        27.04461
_cell_length_b        23.07415
_cell_length_c         7.80495

_cell_angle_alpha     99.18247
_cell_angle_beta     121.89340
_cell_angle_gamma     89.16585

_symmetry_space_group_name_Hall 'P 1'
_symmetry_space_group_name_H-M  'P 1'

loop_
_symmetry_equiv_pos_as_xyz
 'x,y,z'

loop_
_atom_site_label
_atom_site_type_symbol
_atom_site_fract_x
_atom_site_fract_y
_atom_site_fract_z
_atom_site_charge
Ni         Ni      0.50056   0.00355   0.24031   0.46262
Ni         Ni      0.50403   0.99620   0.75085   0.46848
B          B       0.81885   0.00130   0.26783   0.67254
B          B       0.17829   0.00666   0.22811   0.67336
B          B       0.49819   0.63251   0.23974   0.58643
B          B       0.49900   0.37793   0.26319   0.58629
B          B       0.82148   0.99386   0.76753   0.67046
B          B       0.18197   0.99824   0.72599   0.67531
B          B       0.50299   0.62215   0.74307   0.58599
B          B       0.50330   0.36822   0.75986   0.58592
H          H       0.41519   0.55977   0.21984   0.10636
H          H       0.58141   0.45024   0.27817   0.10381
H          H       0.58111   0.55648   0.26500   0.10390
H          H       0.41554   0.45340   0.23274   0.10547
H          H       0.12353   0.91449   0.21818   0.11756
H          H       0.87384   0.09266   0.27539   0.11729
H          H       0.87466   0.90993   0.24945   0.11532
H          H       0.12284   0.09723   0.24740   0.11595
H          H       0.04326   0.85558   0.21429   0.11504
H          H       0.95369   0.15114   0.27770   0.11639
H          H       0.95401   0.85399   0.22697   0.11410
H          H       0.04347   0.15294   0.26869   0.11437
H          H       0.69684   0.11303   0.25629   0.15298
H          H       0.29976   0.89596   0.23066   0.15336
H          H       0.30079   0.11760   0.24783   0.15202
H          H       0.69731   0.89233   0.25992   0.15284
H          H       0.59144   0.77304   0.23526   0.14552
H          H       0.40416   0.23628   0.25273   0.14381
H          H       0.40520   0.77621   0.24916   0.14525
H          H       0.59357   0.23518   0.26182   0.14352
H          H       0.42107   0.55016   0.72929   0.10393
H          H       0.58618   0.44021   0.77663   0.10493
H          H       0.58591   0.54703   0.76674   0.10386
H          H       0.42103   0.44332   0.73753   0.10362
H          H       0.12617   0.90708   0.71682   0.12028
H          H       0.87741   0.08611   0.77971   0.11685
H          H       0.87756   0.90310   0.74945   0.11557
H          H       0.12668   0.08996   0.74879   0.11503
H          H       0.04627   0.84878   0.71601   0.11503
H          H       0.95763   0.14452   0.78107   0.11439
H          H       0.95673   0.84734   0.72620   0.11418
H          H       0.04725   0.14599   0.77159   0.11384
H          H       0.69799   0.10385   0.75378   0.15339
H          H       0.30388   0.88659   0.73378   0.15212
H          H       0.30508   0.10766   0.74164   0.15282
H          H       0.70050   0.88326   0.75874   0.15226
H          H       0.59794   0.76358   0.75459   0.14395
H          H       0.40840   0.22827   0.75493   0.14445
H          H       0.40765   0.76384   0.73968   0.14513
H          H       0.59766   0.22512   0.76236   0.14666
C          C       0.74176   0.97181   0.26715   0.15689
C          C       0.25600   0.03735   0.23339   0.15640
C          C       0.25569   0.97596   0.22778   0.16511
C          C       0.74159   0.03304   0.26780   0.16562
C          C       0.69777   0.06633   0.26148  -0.17792
C          C       0.29936   0.94314   0.23251  -0.17748
C          C       0.29973   0.07019   0.24112  -0.17869
C          C       0.69826   0.93959   0.26272  -0.18238
C          C       0.65351   0.03411   0.25751  -0.02780
C          C       0.34396   0.97572   0.24012  -0.02687
C          C       0.34401   0.03749   0.24488  -0.02841
C          C       0.65367   0.97261   0.25644  -0.03061
C          C       0.60112   0.05236   0.25106   0.30811
C          C       0.39626   0.95763   0.24543   0.31500
C          C       0.39599   0.05480   0.24723   0.31452
C          C       0.60161   0.95519   0.25164   0.30722
C          C       0.49820   0.56609   0.24292  -0.22272
C          C       0.49851   0.44411   0.25611  -0.22072
C          C       0.45159   0.53579   0.23213  -0.06624
C          C       0.54500   0.47420   0.26538  -0.05999
C          C       0.54496   0.53422   0.25925  -0.05534
C          C       0.45159   0.47584   0.23849  -0.05757
C          C       0.02377   0.00391   0.24335   0.00339
C          C       0.97323   0.00288   0.24957   0.00406
C          C       0.02347   0.89623   0.22456  -0.14933
C          C       0.97369   0.11074   0.26877  -0.14396
C          C       0.97354   0.89519   0.22951  -0.14240
C          C       0.02368   0.11158   0.26413  -0.14487
C          C       0.05021   0.95007   0.23024   0.03015
C          C       0.94674   0.05662   0.26173   0.02614
C          C       0.94676   0.94815   0.24349   0.02667
C          C       0.05033   0.05863   0.25037   0.02779
C          C       0.10030   0.95252   0.22329  -0.04329
C          C       0.89679   0.05424   0.26925  -0.04068
C          C       0.89695   0.94915   0.25251  -0.03325
C          C       0.10044   0.05792   0.24319  -0.03560
C          C       0.47230   0.72425   0.24107   0.16525
C          C       0.55217   0.77314   0.24020  -0.19377
C          C       0.52506   0.82519   0.24562  -0.03576
C          C       0.54047   0.88489   0.24662   0.30757
C          C       0.52604   0.28650   0.26597   0.16931
C          C       0.44457   0.23649   0.25479  -0.19398
C          C       0.47230   0.18489   0.25210  -0.03591
C          C       0.45690   0.12465   0.24867   0.31329
C          C       0.52401   0.72329   0.23834   0.16711
C          C       0.44467   0.77517   0.24439  -0.18983
C          C       0.47265   0.82592   0.24513  -0.03787
C          C       0.45723   0.88631   0.24474   0.31968
C          C       0.47328   0.28690   0.26246   0.16613
C          C       0.55371   0.23596   0.26307  -0.19137
C          C       0.52521   0.18474   0.25668  -0.03958
C          C       0.54037   0.12416   0.25339   0.31839
C          C       0.74403   0.96330   0.76538   0.15766
C          C       0.25960   0.02792   0.72879   0.15905
C          C       0.25931   0.96659   0.72490   0.16602
C          C       0.74343   0.02429   0.76487   0.16423
C          C       0.69924   0.05708   0.75822  -0.17778
C          C       0.30320   0.93359   0.73160  -0.17773
C          C       0.30363   0.06031   0.73618  -0.17695
C          C       0.70048   0.93053   0.75996  -0.17685
C          C       0.65514   0.02439   0.75389  -0.03379
C          C       0.34788   0.96600   0.73874  -0.03145
C          C       0.34805   0.02731   0.74121  -0.02844
C          C       0.65553   0.96295   0.75304  -0.02539
C          C       0.60329   0.04291   0.75157   0.30720
C          C       0.40044   0.94780   0.74388   0.31143
C          C       0.40033   0.04482   0.74737   0.31401
C          C       0.60367   0.94578   0.75186   0.31171
C          C       0.50338   0.55602   0.74743  -0.22146
C          C       0.50337   0.43421   0.75573  -0.22520
C          C       0.45694   0.52584   0.73780  -0.06134
C          C       0.55005   0.46451   0.76709  -0.06403
C          C       0.54996   0.52424   0.76079  -0.05434
C          C       0.45690   0.46605   0.74307  -0.05322
C          C       0.02746   0.99718   0.74638   0.00678
C          C       0.97685   0.99643   0.75274   0.00485
C          C       0.02670   0.88953   0.72692  -0.14412
C          C       0.97734   0.10383   0.77160  -0.14682
C          C       0.97666   0.88866   0.73095  -0.14377
C          C       0.02753   0.10477   0.76787  -0.14414
C          C       0.05372   0.94327   0.73260   0.02551
C          C       0.95022   0.05008   0.76535   0.02891
C          C       0.95001   0.94171   0.74503   0.02393
C          C       0.05429   0.05191   0.75389   0.02360
C          C       0.10370   0.94571   0.72530  -0.04275
C          C       0.89994   0.04757   0.77155  -0.04333
C          C       0.89991   0.94242   0.75322  -0.03343
C          C       0.10420   0.05067   0.74427  -0.03198
C          C       0.47600   0.71323   0.73988   0.16794
C          C       0.55727   0.76321   0.74963  -0.19386
C          C       0.52926   0.81498   0.75123  -0.04066
C          C       0.54420   0.87488   0.75165   0.30773
C          C       0.52967   0.27679   0.76337   0.16853
C          C       0.44862   0.22776   0.75685  -0.19080
C          C       0.47618   0.17569   0.75470  -0.03434
C          C       0.46101   0.11575   0.75382   0.31178
C          C       0.52893   0.71299   0.74443   0.16602
C          C       0.44790   0.76402   0.74182  -0.19021
C          C       0.47617   0.81512   0.74668  -0.03597
C          C       0.46055   0.87556   0.74520   0.32228
C          C       0.47712   0.27758   0.76007   0.16552
C          C       0.55758   0.22585   0.76180  -0.19078
C          C       0.52911   0.17513   0.75861  -0.04120
C          C       0.54398   0.11451   0.75566   0.32099
N          N       0.58820   0.10804   0.25557  -0.39183
N          N       0.40917   0.90220   0.24205  -0.39263
N          N       0.40938   0.10979   0.24806  -0.38830
N          N       0.58813   0.90024   0.24968  -0.38546
N          N       0.57064   0.00410   0.24807  -0.37061
N          N       0.42666   0.00556   0.24938  -0.38062
N          N       0.49898   0.92123   0.24759  -0.34630
N          N       0.49860   0.08862   0.24734  -0.34603
N          N       0.12535   0.00573   0.23123  -0.20852
N          N       0.87179   0.00125   0.26314  -0.20988
N          N       0.59145   0.09876   0.75675  -0.38821
N          N       0.41247   0.89204   0.74083  -0.39077
N          N       0.41328   0.09989   0.74914  -0.38519
N          N       0.59138   0.89075   0.75281  -0.38072
N          N       0.57268   0.99512   0.75108  -0.37193
N          N       0.43160   0.99618   0.75048  -0.38212
N          N       0.50203   0.91072   0.75018  -0.34906
N          N       0.50270   0.07943   0.75371  -0.34551
N          N       0.12912   0.99845   0.73180  -0.20819
N          N       0.87480   0.99460   0.76495  -0.20331
O          O       0.79098   0.05247   0.27175  -0.37643
O          O       0.20605   0.95591   0.22089  -0.37764
O          O       0.20654   0.05740   0.23306  -0.38144
O          O       0.79102   0.95128   0.26875  -0.37715
O          O       0.54053   0.66596   0.23653  -0.34079
O          O       0.45609   0.34395   0.26132  -0.34129
O          O       0.45564   0.66775   0.24107  -0.34339
O          O       0.54283   0.34317   0.26863  -0.34248
O          O       0.79275   0.04439   0.77000  -0.37887
O          O       0.20957   0.94722   0.71970  -0.38105
O          O       0.21036   0.04844   0.72826  -0.37732
O          O       0.79375   0.94335   0.76698  -0.37856
O          O       0.54606   0.65617   0.74596  -0.33995
O          O       0.46022   0.33470   0.75889  -0.34054
O          O       0.45920   0.65670   0.73765  -0.33980
O          O       0.54648   0.33314   0.76343  -0.34181

