data_crystal

_audit_creation_method 'AiiDA-DDEC plugin'

_cell_length_a        19.23114
_cell_length_b        22.32987
_cell_length_c         8.09180

_cell_angle_alpha     77.59375
_cell_angle_beta     64.41682
_cell_angle_gamma     110.76023

_symmetry_space_group_name_Hall 'P 1'
_symmetry_space_group_name_H-M  'P 1'

loop_
_symmetry_equiv_pos_as_xyz
 'x,y,z'

loop_
_atom_site_label
_atom_site_type_symbol
_atom_site_fract_x
_atom_site_fract_y
_atom_site_fract_z
_atom_site_charge
H          H       0.88157   0.54664   0.26529   0.16536
H          H       0.63898   0.14834   0.33118   0.09066
H          H       0.64343   0.09774   0.12224   0.15323
H          H       0.52371   0.34598   0.09795   0.10927
H          H       0.50083   0.68464   0.33501   0.11983
H          H       0.57957   0.64645   0.02877   0.15518
H          H       0.44713   0.38518   0.41789   0.15388
H          H       0.11773   0.49133   0.22080   0.15283
H          H       0.19663   0.55631   0.27415   0.07915
H          H       0.33574   0.85520   0.20270   0.09498
H          H       0.32842   0.90198   0.45953   0.15767
H          H       0.87969   0.54045   0.77467   0.16718
H          H       0.66061   0.13548   0.80805   0.09569
H          H       0.67158   0.08683   0.54230   0.15665
H          H       0.50234   0.31155   0.65839   0.11963
H          H       0.48244   0.64662   0.89484   0.10614
H          H       0.55221   0.61011   0.60058   0.15117
H          H       0.42455   0.34918   0.98452   0.15537
H          H       0.11809   0.48553   0.70498   0.15172
H          H       0.18586   0.53871   0.79023   0.08029
H          H       0.36420   0.84075   0.64497   0.09436
H          H       0.35440   0.89222   0.88792   0.15699
C          C       0.31558   0.62519   0.31725   0.33240
C          C       0.41705   0.74645   0.28157   0.35708
C          C       0.28259   0.72719   0.25139   0.36789
C          C       0.69125   0.38942   0.17926   0.36038
C          C       0.58145   0.27316   0.21136   0.36125
C          C       0.71048   0.27877   0.24655   0.36019
C          C       0.39369   0.67295   0.30571  -0.20116
C          C       0.36050   0.77068   0.25407  -0.17207
C          C       0.26353   0.65410   0.27895  -0.15268
C          C       0.61428   0.34802   0.17691  -0.22848
C          C       0.62883   0.23985   0.25266  -0.17913
C          C       0.73658   0.35182   0.21398  -0.26974
C          C       0.44400   0.64719   0.34050   0.10775
C          C       0.38277   0.84093   0.21706   0.11985
C          C       0.19801   0.60701   0.26240   0.09205
C          C       0.57516   0.38043   0.11436   0.12120
C          C       0.59532   0.16716   0.31291   0.12501
C          C       0.80231   0.39076   0.24111   0.32933
C          C       0.46939   0.55151   0.31218   0.18287
C          C       0.46877   0.94171   0.23468   0.18032
C          C       0.07259   0.56900   0.24312   0.16760
C          C       0.55654   0.47998   0.13656   0.18838
C          C       0.50258   0.06144   0.33206   0.19274
C          C       0.92966   0.47233   0.24459   0.18190
C          C       0.43405   0.47598   0.42313   0.08254
C          C       0.55949   0.99869   0.14657   0.09186
C          C       0.00432   0.58392   0.25064   0.10600
C          C       0.59324   0.55593   0.02524   0.08696
C          C       0.41207   0.00315   0.42965   0.09508
C          C       0.99631   0.45661   0.23964   0.05662
C          C       0.55106   0.58934   0.10902  -0.23653
C          C       0.39639   0.94531   0.38576  -0.24129
C          C       0.06527   0.50360   0.23776  -0.21007
C          C       0.47490   0.44188   0.33723  -0.23936
C          C       0.57526   0.05512   0.19483  -0.24303
C          C       0.93390   0.53578   0.25476  -0.23411
C          C       0.30679   0.60252   0.84087   0.32998
C          C       0.41790   0.71969   0.80085   0.35180
C          C       0.29013   0.71131   0.75464   0.35761
C          C       0.68646   0.36759   0.68435   0.35769
C          C       0.58379   0.24873   0.71872   0.35548
C          C       0.71667   0.26334   0.75158   0.36159
C          C       0.38497   0.64473   0.83870  -0.21192
C          C       0.37127   0.75121   0.74933  -0.17482
C          C       0.25934   0.63562   0.79740  -0.16074
C          C       0.60888   0.32209   0.69123  -0.21688
C          C       0.63840   0.22081   0.74940  -0.18237
C          C       0.73745   0.33662   0.72084  -0.25921
C          C       0.42600   0.61250   0.89300   0.11851
C          C       0.40458   0.82298   0.68021   0.12572
C          C       0.19208   0.59206   0.77725   0.10427
C          C       0.55814   0.34838   0.65821   0.11320
C          C       0.61605   0.15139   0.78651   0.12380
C          C       0.80442   0.37899   0.73176   0.31473
C          C       0.44370   0.51431   0.87873   0.17579
C          C       0.49441   0.92821   0.67543   0.18583
C          C       0.07280   0.56219   0.74110   0.16871
C          C       0.53207   0.44416   0.70056   0.20049
C          C       0.53122   0.04975   0.76517   0.19014
C          C       0.92724   0.46606   0.74415   0.18937
C          C       0.40860   0.43902   0.98953   0.08941
C          C       0.58564   0.98572   0.58004   0.10292
C          C       0.00416   0.57680   0.75075   0.10250
C          C       0.56755   0.52008   0.59085   0.07903
C          C       0.43985   0.99219   0.85720   0.08880
C          C       0.99536   0.45059   0.72987   0.05897
C          C       0.52565   0.55349   0.67930  -0.23614
C          C       0.42280   0.93538   0.81337  -0.23384
C          C       0.06532   0.49770   0.72670  -0.21825
C          C       0.45149   0.40604   0.90393  -0.24400
C          C       0.60280   0.04368   0.61878  -0.24545
C          C       0.93273   0.52926   0.75565  -0.23397
N          N       0.42505   0.58106   0.39600  -0.13009
N          N       0.45788   0.89022   0.17724  -0.17033
N          N       0.13808   0.61898   0.24081  -0.23000
N          N       0.59880   0.44907   0.05797  -0.15412
N          N       0.51586   0.11923   0.36236  -0.18765
N          N       0.86206   0.42596   0.24447  -0.09870
N          N       0.39893   0.54392   0.95963  -0.14358
N          N       0.48171   0.87170   0.63869  -0.16717
N          N       0.13818   0.61040   0.74496  -0.24163
N          N       0.57529   0.41523   0.61531  -0.14800
N          N       0.54245   0.10350   0.81511  -0.17848
N          N       0.85610   0.41833   0.75774  -0.10956
Cl         Cl      0.33821   0.43252   0.66371   0.00928
Cl         Cl      0.64620   0.99345   0.97108  -0.00376
Cl         Cl      0.00668   0.65946   0.26144   0.00962
Cl         Cl      0.69190   0.60156   0.78944  -0.01162
Cl         Cl      0.32508   0.00863   0.60100  -0.01527
Cl         Cl      0.98851   0.37866   0.22929  -0.00908
Cl         Cl      0.31155   0.39360   0.22713  -0.00542
Cl         Cl      0.67358   0.98002   0.40981  -0.02234
Cl         Cl      0.00766   0.65239   0.76945   0.00226
Cl         Cl      0.66459   0.56596   0.35293   0.00674
Cl         Cl      0.35297   0.99637   0.03453  -0.00421
Cl         Cl      0.98859   0.37372   0.71531  -0.00547
O          O       0.29329   0.56106   0.35989  -0.40174
O          O       0.48103   0.78389   0.28786  -0.38766
O          O       0.24052   0.75232   0.21672  -0.39949
O          O       0.72105   0.45352   0.14451  -0.42732
O          O       0.51703   0.24144   0.20171  -0.40117
O          O       0.75318   0.25086   0.27071  -0.44647
O          O       0.28111   0.53790   0.87677  -0.41041
O          O       0.48128   0.75300   0.81416  -0.40578
O          O       0.25334   0.74195   0.71221  -0.40438
O          O       0.70937   0.43090   0.65057  -0.41393
O          O       0.51918   0.21107   0.71362  -0.38885
O          O       0.76181   0.23878   0.77902  -0.43986

