data_crystal

_audit_creation_method 'AiiDA-DDEC plugin'

_cell_length_a        13.51130
_cell_length_b        13.44562
_cell_length_c         8.20045

_cell_angle_alpha     90.00000
_cell_angle_beta     90.00000
_cell_angle_gamma     119.01251

_symmetry_space_group_name_Hall 'P 1'
_symmetry_space_group_name_H-M  'P 1'

loop_
_symmetry_equiv_pos_as_xyz
 'x,y,z'

loop_
_atom_site_label
_atom_site_type_symbol
_atom_site_fract_x
_atom_site_fract_y
_atom_site_fract_z
_atom_site_charge
Si         Si      0.47119   0.33656   0.18790   1.84845
Si         Si      0.66120   0.13620   0.18730   1.84514
Si         Si      0.88782   0.56397   0.18863   1.86258
Si         Si      0.52987   0.66846   0.18795   1.85020
Si         Si      0.33977   0.86889   0.18733   1.84638
Si         Si      0.11320   0.44084   0.18861   1.86119
Si         Si      0.33669   0.45107   0.31269   1.85459
Si         Si      0.13245   0.66077   0.31245   1.84291
Si         Si      0.56241   0.89470   0.31402   1.84377
Si         Si      0.66440   0.55395   0.31272   1.85209
Si         Si      0.86860   0.34409   0.31244   1.84313
Si         Si      0.43854   0.11040   0.31399   1.84788
Si         Si      0.52987   0.66846   0.81205   1.85020
Si         Si      0.33977   0.86889   0.81266   1.84640
Si         Si      0.11320   0.44084   0.81138   1.86119
Si         Si      0.47119   0.33656   0.81210   1.84847
Si         Si      0.66120   0.13620   0.81270   1.84516
Si         Si      0.88782   0.56397   0.81137   1.86261
Si         Si      0.66440   0.55395   0.68728   1.85207
Si         Si      0.86860   0.34409   0.68755   1.84314
Si         Si      0.43854   0.11040   0.68601   1.84785
Si         Si      0.33669   0.45107   0.68732   1.85462
Si         Si      0.13245   0.66077   0.68755   1.84289
Si         Si      0.56241   0.89470   0.68598   1.84370
O          O       0.50834   0.33330   0.00000  -0.92579
O          O       0.65143   0.17043  -0.00000  -0.92680
O          O       0.91456   0.60675  -0.00000  -0.92570
O          O       0.49274   0.67151   0.00000  -0.92700
O          O       0.34981   0.83486  -0.00000  -0.92721
O          O       0.08637   0.39808  -0.00000  -0.92520
O          O       0.34317   0.41439   0.50000  -0.93241
O          O       0.15939   0.64144   0.50000  -0.92790
O          O       0.60324   0.93672   0.50000  -0.92058
O          O       0.65793   0.59066   0.50000  -0.93121
O          O       0.84176   0.36347   0.50000  -0.92853
O          O       0.39782   0.06843   0.50000  -0.92282
O          O       0.38312   0.38675   0.19179  -0.93652
O          O       0.62950   0.00278   0.19236  -0.92362
O          O       0.00100   0.63202   0.29974  -0.92926
O          O       0.61812   0.61849   0.19199  -0.93632
O          O       0.37137   0.00228   0.19242  -0.92462
O          O       0.00001   0.37272   0.29970  -0.92947
O          O       0.61812   0.61849   0.80801  -0.93631
O          O       0.37137   0.00228   0.80758  -0.92459
O          O       0.00001   0.37272   0.70030  -0.92945
O          O       0.38312   0.38675   0.80820  -0.93653
O          O       0.62950   0.00278   0.80764  -0.92359
O          O       0.00100   0.63202   0.70026  -0.92927
O          O       0.40785   0.20924   0.26492  -0.89568
O          O       0.78907   0.21281   0.25648  -0.89297
O          O       0.79420   0.59302   0.26466  -0.90350
O          O       0.59301   0.79583   0.26482  -0.89527
O          O       0.21189   0.79206   0.25643  -0.89366
O          O       0.20687   0.41183   0.26458  -0.90387
O          O       0.59301   0.79583   0.73518  -0.89526
O          O       0.21189   0.79206   0.74357  -0.89365
O          O       0.20687   0.41183   0.73542  -0.90388
O          O       0.40785   0.20924   0.73508  -0.89567
O          O       0.78907   0.21281   0.74352  -0.89296
O          O       0.79420   0.59302   0.73534  -0.90350
O          O       0.58541   0.41613   0.29354  -0.93994
O          O       0.57523   0.15959   0.30051  -0.94831
O          O       0.84370   0.42714   0.19377  -0.94807
O          O       0.41559   0.58889   0.29349  -0.94128
O          O       0.42574   0.84560   0.30071  -0.94739
O          O       0.15732   0.57769   0.19380  -0.94801
O          O       0.41559   0.58889   0.70651  -0.94129
O          O       0.42574   0.84560   0.69929  -0.94737
O          O       0.15732   0.57769   0.80620  -0.94802
O          O       0.58541   0.41613   0.70646  -0.93994
O          O       0.57523   0.15959   0.69949  -0.94832
O          O       0.84370   0.42714   0.80623  -0.94810

