data_crystal

_audit_creation_method 'AiiDA-DDEC plugin'

_cell_length_a        22.38537
_cell_length_b        13.57572
_cell_length_c         6.95547

_cell_angle_alpha     89.78082
_cell_angle_beta     90.00000
_cell_angle_gamma     90.00000

_symmetry_space_group_name_Hall 'P 1'
_symmetry_space_group_name_H-M  'P 1'

loop_
_symmetry_equiv_pos_as_xyz
 'x,y,z'

loop_
_atom_site_label
_atom_site_type_symbol
_atom_site_fract_x
_atom_site_fract_y
_atom_site_fract_z
_atom_site_charge
Si         Si      0.08890   0.13612   0.44016   1.85439
Si         Si      0.41110   0.13612   0.44016   1.85440
Si         Si      0.08913   0.36084   0.44109   1.85810
Si         Si      0.41087   0.36084   0.44109   1.85810
Si         Si      0.91110   0.86387   0.55984   1.85450
Si         Si      0.58890   0.86387   0.55984   1.85454
Si         Si      0.91087   0.63916   0.55891   1.85810
Si         Si      0.58913   0.63916   0.55891   1.85807
Si         Si      0.18073   0.13657   0.10474   1.84909
Si         Si      0.31927   0.13657   0.10474   1.84914
Si         Si      0.18067   0.36291   0.10526   1.85026
Si         Si      0.31933   0.36291   0.10526   1.85025
Si         Si      0.81927   0.86342   0.89526   1.84915
Si         Si      0.68073   0.86342   0.89526   1.84920
Si         Si      0.81933   0.63709   0.89474   1.85034
Si         Si      0.68067   0.63709   0.89474   1.85027
Si         Si      0.99306   0.13728   0.11592   1.83290
Si         Si      0.50694   0.13728   0.11592   1.83296
Si         Si      0.99263   0.36223   0.11832   1.83799
Si         Si      0.50737   0.36223   0.11832   1.83807
Si         Si      0.00694   0.86272   0.88408   1.83283
Si         Si      0.49306   0.86272   0.88408   1.83290
Si         Si      0.00737   0.63776   0.88168   1.83789
Si         Si      0.49263   0.63776   0.88168   1.83791
Si         Si      0.08476   0.04672   0.84751   1.84899
Si         Si      0.41523   0.04672   0.84751   1.84904
Si         Si      0.08453   0.45325   0.84678   1.85173
Si         Si      0.41547   0.45325   0.84678   1.85172
Si         Si      0.91523   0.95328   0.15249   1.84906
Si         Si      0.58476   0.95328   0.15249   1.84905
Si         Si      0.91547   0.54674   0.15322   1.85157
Si         Si      0.58453   0.54674   0.15322   1.85155
O          O       0.15044   0.12576   0.31690  -0.94428
O          O       0.34956   0.12576   0.31690  -0.94427
O          O       0.15067   0.37199   0.31794  -0.94501
O          O       0.34933   0.37199   0.31794  -0.94499
O          O       0.84956   0.87424   0.68310  -0.94430
O          O       0.65044   0.87424   0.68310  -0.94437
O          O       0.84933   0.62800   0.68206  -0.94495
O          O       0.65067   0.62800   0.68206  -0.94499
O          O       0.03110   0.10834   0.30821  -0.95962
O          O       0.46890   0.10834   0.30821  -0.95965
O          O       0.03140   0.38945   0.30927  -0.96188
O          O       0.46860   0.38945   0.30927  -0.96189
O          O       0.96889   0.89166   0.69179  -0.95973
O          O       0.53110   0.89166   0.69179  -0.95969
O          O       0.96860   0.61054   0.69073  -0.96180
O          O       0.53140   0.61054   0.69073  -0.96177
O          O       0.09126   0.05795   0.61626  -0.87994
O          O       0.40874   0.05795   0.61626  -0.87995
O          O       0.09157   0.43821   0.61691  -0.88311
O          O       0.40843   0.43821   0.61691  -0.88311
O          O       0.90874   0.94205   0.38374  -0.88005
O          O       0.59126   0.94205   0.38374  -0.88007
O          O       0.90843   0.56178   0.38309  -0.88301
O          O       0.59157   0.56178   0.38309  -0.88302
O          O       0.08290   0.24824   0.52345  -0.93676
O          O       0.41710   0.24824   0.52345  -0.93678
O          O       0.91710   0.75176   0.47655  -0.93679
O          O       0.58290   0.75176   0.47655  -0.93678
O          O       0.14920   0.06448   0.94929  -0.90548
O          O       0.35080   0.06448   0.94929  -0.90549
O          O       0.14866   0.43597   0.95138  -0.90644
O          O       0.35134   0.43597   0.95138  -0.90640
O          O       0.85080   0.93552   0.05071  -0.90554
O          O       0.64920   0.93552   0.05071  -0.90557
O          O       0.85134   0.56402   0.04862  -0.90636
O          O       0.64866   0.56402   0.04862  -0.90635
O          O       0.17440   0.24996   0.02607  -0.97161
O          O       0.32560   0.24996   0.02607  -0.97162
O          O       0.82560   0.75004   0.97393  -0.97166
O          O       0.67440   0.75004   0.97393  -0.97163
O          O       0.25000   0.10404   0.12532  -0.88830
O          O       0.25000   0.39515   0.12499  -0.88899
O          O       0.75000   0.89595   0.87468  -0.88838
O          O       0.75000   0.60484   0.87501  -0.88897
O          O       0.96854   0.24960   0.12553  -0.88359
O          O       0.53146   0.24960   0.12553  -0.88366
O          O       0.03146   0.75040   0.87447  -0.88359
O          O       0.46854   0.75040   0.87447  -0.88358
O          O       0.03565   0.12620   0.92601  -0.95668
O          O       0.46435   0.12620   0.92601  -0.95670
O          O       0.03414   0.37612   0.92667  -0.95869
O          O       0.46586   0.37612   0.92667  -0.95872
O          O       0.96435   0.87380   0.07399  -0.95660
O          O       0.53565   0.87380   0.07399  -0.95661
O          O       0.96586   0.62387   0.07333  -0.95876
O          O       0.53414   0.62387   0.07332  -0.95872
O          O       0.93531   0.06549   0.10009  -0.90114
O          O       0.56469   0.06549   0.10009  -0.90120
O          O       0.93453   0.43339   0.10848  -0.90053
O          O       0.56547   0.43339   0.10848  -0.90055
O          O       0.06469   0.93451   0.89991  -0.90111
O          O       0.43531   0.93451   0.89991  -0.90113
O          O       0.06547   0.56661   0.89152  -0.90059
O          O       0.43453   0.56661   0.89152  -0.90056

