data_crystal

_audit_creation_method 'AiiDA-DDEC plugin'

_cell_length_a         7.46389
_cell_length_b         9.54829
_cell_length_c        11.36269

_cell_angle_alpha     101.37360
_cell_angle_beta     91.94560
_cell_angle_gamma     113.43170

_symmetry_space_group_name_Hall 'P 1'
_symmetry_space_group_name_H-M  'P 1'

loop_
_symmetry_equiv_pos_as_xyz
 'x,y,z'

loop_
_atom_site_label
_atom_site_type_symbol
_atom_site_fract_x
_atom_site_fract_y
_atom_site_fract_z
_atom_site_charge
Co         Co      0.58414   0.49468   0.49985   0.98300
Co         Co      0.09462   0.51494   0.50308   0.98411
H          H       0.85018   0.06766   0.40621   0.35352
H          H       0.35932   0.25510   0.25611   0.09884
H          H       0.35227   0.24360   0.03355   0.11815
H          H       0.78370   0.72410   0.12412   0.12105
H          H       0.76597   0.71692   0.33967   0.10250
H          H       0.55800   0.70108   0.72686   0.10657
H          H       0.54898   0.70543   0.94837   0.11307
H          H       0.60401   0.26433   0.87283   0.11665
H          H       0.62444   0.28525   0.65664   0.10964
H          H       0.15511   0.97078   0.38514   0.07808
H          H       0.81261   0.94000   0.61484   0.34976
H          H       0.12000   0.75071   0.74188   0.09591
H          H       0.12120   0.76189   0.96367   0.11839
H          H       0.06075   0.28281   0.88279   0.12045
H          H       0.05584   0.29035   0.66693   0.10413
H          H       0.84793   0.30842   0.27003   0.10493
H          H       0.83922   0.30132   0.04768   0.11268
H          H       0.35151   0.74220   0.13604   0.11769
H          H       0.34587   0.72381   0.35334   0.11269
H          H       0.21503   0.03803   0.61470   0.07664
C          C       0.45079   0.35585   0.22211   0.09893
C          C       0.44908   0.35012   0.09854  -0.19583
C          C       0.56980   0.48309   0.05908   0.09140
C          C       0.68625   0.61685   0.14819  -0.17711
C          C       0.68035   0.61273   0.26970   0.09524
C          C       0.57196   0.60931   0.76482   0.09695
C          C       0.56630   0.60997   0.88703  -0.18649
C          C       0.57589   0.48461   0.92960   0.08982
C          C       0.59358   0.36381   0.84506  -0.18806
C          C       0.60502   0.37407   0.72474   0.10110
C          C       0.18262   0.20664   0.45841   0.55523
C          C       0.07408   0.02750   0.44057   0.03552
C          C       0.10834   0.65013   0.77748   0.09722
C          C       0.11019   0.65583   0.90103  -0.19496
C          C       0.09345   0.52321   0.94322   0.09313
C          C       0.07413   0.38992   0.85670  -0.17934
C          C       0.07508   0.39409   0.73507   0.09757
C          C       0.95798   0.39982   0.23494   0.09352
C          C       0.95425   0.39749   0.11218  -0.18916
C          C       0.09485   0.52217   0.07298   0.08904
C          C       0.23679   0.64356   0.16120  -0.18743
C          C       0.23515   0.63488   0.28210   0.10526
C          C       0.99041   0.80269   0.54624   0.55262
C          C       0.06559   0.98208   0.56547   0.03545
N          N       0.59307   0.49425   0.68467  -0.24011
N          N       0.56553   0.48445   0.30739  -0.24635
N          N       0.09714   0.51566   0.31883  -0.23941
N          N       0.09258   0.52202   0.69477  -0.24929
O          O       0.36872   0.26221   0.46512  -0.57635
O          O       0.06988   0.27797   0.46441  -0.57806
O          O       0.88086   0.97604   0.37964  -0.49790
O          O       0.11640   0.74572   0.52545  -0.57682
O          O       0.80771   0.73238   0.55363  -0.58137
O          O       0.93857   0.03353   0.63510  -0.49610
F          F       0.79710   0.41631   0.48001  -0.57348
F          F       0.39074   0.59461   0.52009  -0.57286

