data_crystal

_audit_creation_method 'AiiDA-DDEC plugin'

_cell_length_a         4.80481
_cell_length_b         8.30379
_cell_length_c        19.18636

_cell_angle_alpha     98.73541
_cell_angle_beta     100.55750
_cell_angle_gamma     90.37909

_symmetry_space_group_name_Hall 'P 1'
_symmetry_space_group_name_H-M  'P 1'

loop_
_symmetry_equiv_pos_as_xyz
 'x,y,z'

loop_
_atom_site_label
_atom_site_type_symbol
_atom_site_fract_x
_atom_site_fract_y
_atom_site_fract_z
_atom_site_charge
Al         Al      0.07873   0.86913   0.24749   1.78681
Al         Al      0.46547   0.69762   0.71886   1.72196
Al         Al      0.92133   0.13085   0.75252   1.78719
Al         Al      0.53458   0.30235   0.28114   1.72172
P          P       0.41098   0.32961   0.69899   1.39650
P          P       0.11093   0.18826   0.35537   1.38084
P          P       0.48945   0.98735   0.83260   1.37470
P          P       0.58909   0.67036   0.30102   1.39637
P          P       0.88913   0.81173   0.64463   1.38109
P          P       0.51061   0.01261   0.16741   1.37414
H          H       0.33683   0.02963   0.59809   0.12218
H          H       0.22168   0.96848   0.46576   0.11002
H          H       0.21146   0.48560   0.45643   0.11370
H          H       0.32376   0.54393   0.58681   0.08893
H          H       0.10357   0.86093   0.90864   0.12510
H          H       0.89322   0.14181   0.96197   0.11852
H          H       0.66331   0.97035   0.40191   0.12202
H          H       0.77847   0.03151   0.53425   0.11000
H          H       0.78877   0.51439   0.54358   0.11368
H          H       0.67649   0.45605   0.41320   0.08872
H          H       0.89660   0.13895   0.09138   0.12510
H          H       0.10696   0.85807   0.03805   0.11858
C          C       0.34507   0.29079   0.60211  -0.17070
C          C       0.31199   0.12884   0.56684  -0.08159
C          C       0.24529   0.09476   0.49230  -0.04855
C          C       0.20904   0.22285   0.45139  -0.20168
C          C       0.23912   0.38476   0.48693  -0.04900
C          C       0.30560   0.41770   0.56143  -0.08901
C          C       0.50356   0.99413   0.92683  -0.22296
C          C       0.28084   0.91819   0.94871  -0.04651
C          C       0.72550   0.07679   0.97837  -0.05482
C          C       0.65509   0.70919   0.39790  -0.17063
C          C       0.68818   0.87114   0.43316  -0.08140
C          C       0.75487   0.90523   0.50770  -0.04861
C          C       0.79110   0.77713   0.54861  -0.20157
C          C       0.76108   0.61522   0.51308  -0.04908
C          C       0.69462   0.58228   0.43858  -0.08887
C          C       0.49656   0.00580   0.07319  -0.22286
C          C       0.71932   0.08171   0.05130  -0.04618
C          C       0.27466   0.92311   0.02165  -0.05441
O          O       0.22318   0.19819   0.71712  -0.83154
O          O       0.24658   0.33302   0.32799  -0.82154
O          O       0.17410   0.99289   0.79909  -0.84047
O          O       0.27326   0.67957   0.26909  -0.79276
O          O       0.21480   0.80503   0.66252  -0.81353
O          O       0.30772   0.87617   0.17749  -0.81021
O          O       0.77686   0.80177   0.28287  -0.83153
O          O       0.75343   0.66696   0.67200  -0.82165
O          O       0.82595   0.00710   0.20093  -0.84033
O          O       0.72681   0.32041   0.73093  -0.79300
O          O       0.78525   0.19497   0.33750  -0.81322
O          O       0.69232   0.12379   0.82252  -0.81039
O          O       0.31847   0.50608   0.72186  -0.81169
O          O       0.22097   0.02235   0.32602  -0.82470
O          O       0.58969   0.81465   0.80307  -0.82833
O          O       0.68158   0.49389   0.27814  -0.81186
O          O       0.77905   0.97762   0.67399  -0.82471
O          O       0.41034   0.18531   0.19694  -0.82797

