data_crystal

_audit_creation_method 'AiiDA-DDEC plugin'

_cell_length_a         8.15737
_cell_length_b         4.30202
_cell_length_c        17.69554

_cell_angle_alpha     106.20165
_cell_angle_beta     89.58823
_cell_angle_gamma     89.94185

_symmetry_space_group_name_Hall 'P 1'
_symmetry_space_group_name_H-M  'P 1'

loop_
_symmetry_equiv_pos_as_xyz
 'x,y,z'

loop_
_atom_site_label
_atom_site_type_symbol
_atom_site_fract_x
_atom_site_fract_y
_atom_site_fract_z
_atom_site_charge
Ni         Ni      0.77544   0.65900   0.35626   0.65899
Ni         Ni      0.27164   0.30263   0.13893   0.66397
Ni         Ni      0.22504   0.31784   0.63770   0.66109
Ni         Ni      0.72712   0.67187   0.85351   0.65847
H          H       0.84015   0.98325   0.52790   0.09234
H          H       0.03344   0.19551   0.35947   0.09524
H          H       0.71829   0.32513   0.46239   0.07627
H          H       0.45799   0.45573   0.40722   0.11182
H          H       0.95899   0.03472   0.25316  -0.00460
H          H       0.33713  -0.00660   0.96141   0.08106
H          H       0.51730   0.80536   0.13251   0.08441
H          H       0.21240   0.65213   0.03023   0.08215
H          H       0.95780   0.52391   0.08556   0.11212
H          H       0.45843   0.95267   0.24112   0.00811
H          H       0.17021   0.00244   0.46294   0.08922
H          H       0.97245   0.79706   0.63213   0.09152
H          H       0.28885   0.66104   0.53307   0.07759
H          H       0.55013   0.52956   0.58581   0.10963
H          H       0.04428   0.95943   0.73847   0.00460
H          H       0.66273  -0.00662   0.02925   0.09242
H          H       0.48077   0.17620   0.85715   0.08927
H          H       0.78994   0.32534   0.96263   0.07739
H          H       0.04334   0.45148   0.90736   0.11025
H          H       0.55297   0.02647   0.74864   0.00102
C          C       0.91585   0.78212   0.51388   0.03254
C          C       0.01621   0.32308   0.42083  -0.07406
C          C       0.62396   0.17316   0.47984  -0.00502
C          C       0.48097   0.69028   0.44953   0.04590
C          C       0.00613   0.76821   0.23640   0.47787
C          C       0.42123   0.20829   0.97797   0.04292
C          C       0.50327   0.66907   0.07078  -0.07246
C          C       0.12194   0.80738   0.01232  -0.00218
C          C       0.97816   0.29158   0.04394   0.05207
C          C       0.50343   0.22024   0.25579   0.46291
C          C       0.08896   0.21383   0.48012   0.03897
C          C       0.98934   0.66838   0.57268  -0.07126
C          C       0.38084   0.81325   0.51504  -0.00372
C          C       0.52253   0.29493   0.54491   0.05595
C          C       0.99203   0.22163   0.75507   0.46538
C          C       0.58146   0.78091   0.01321   0.03427
C          C       0.49645   0.31387   0.91924  -0.07024
C          C       0.88310   0.17261   0.98041   0.00100
C          C       0.02362   0.68903   0.94862   0.05289
C          C       0.50056   0.76494   0.73562   0.47170
N          N       0.92296   0.60482   0.43734  -0.28549
N          N       0.60511   0.86997   0.42978  -0.23784
N          N       0.41469   0.38190   0.05482  -0.28795
N          N       0.10167   0.11259   0.06223  -0.23961
N          N       0.08373   0.38693   0.55667  -0.28402
N          N       0.40141   0.11751   0.56373  -0.23341
N          N       0.58310   0.59870   0.93584  -0.28944
N          N       0.89910   0.86745   0.93008  -0.23853
O          O       0.93676   0.55106   0.26280  -0.49630
O          O       0.13112   0.72359   0.19245  -0.50482
O          O       0.43318   0.44268   0.22964  -0.48656
O          O       0.62808   0.26542   0.29966  -0.49649
O          O       0.05924   0.44979   0.72937  -0.49667
O          O       0.87070   0.26237   0.80087  -0.48827
O          O       0.57456   0.54370   0.75997  -0.49383
O          O       0.37190   0.72298   0.69512  -0.50052

