data_crystal

_audit_creation_method 'AiiDA-DDEC plugin'

_cell_length_a         6.44620
_cell_length_b         7.83528
_cell_length_c        15.85649

_cell_angle_alpha     102.39321
_cell_angle_beta     101.70886
_cell_angle_gamma     90.00679

_symmetry_space_group_name_Hall 'P 1'
_symmetry_space_group_name_H-M  'P 1'

loop_
_symmetry_equiv_pos_as_xyz
 'x,y,z'

loop_
_atom_site_label
_atom_site_type_symbol
_atom_site_fract_x
_atom_site_fract_y
_atom_site_fract_z
_atom_site_charge
Ni         Ni      0.54994   0.28687   0.56151   0.81470
Ni         Ni      0.99090   0.72075   0.44227   0.81448
H          H       0.00940   0.27281   0.75766   0.12402
H          H       0.69391   0.52216   0.73948   0.09902
H          H       0.14469   0.22182   0.61991   0.10966
H          H       0.58258   0.59229   0.88546   0.12241
H          H       0.30488   0.68908   0.55913   0.29878
H          H       0.24201   0.90155   0.58434   0.29420
H          H       0.15648   0.68985   0.68361   0.06949
H          H       0.88732   0.42776   0.86617   0.08226
H          H       0.02360   0.97865   0.70716   0.11597
H          H       0.80804   0.83024   0.69219   0.13431
H          H       0.25396   0.73419   0.24626   0.12399
H          H       0.95656   0.48490   0.26443   0.09825
H          H       0.52716   0.78590   0.38389   0.10920
H          H       0.69905   0.41395   0.11856   0.12222
H          H       0.74776   0.31878   0.44482   0.29891
H          H       0.65977   0.10627   0.41953   0.29466
H          H       0.47535   0.31815   0.32027   0.06956
H          H       0.02324   0.57806   0.13795   0.08130
H          H       0.31919   0.02907   0.29650   0.11667
H          H       0.11835   0.17725   0.31148   0.13491
H          H       0.54304   0.50328   0.00198   0.10366
C          C       0.16368   0.33139   0.75908  -0.17685
C          C       0.54556   0.46914   0.74844   0.07337
C          C       0.22355   0.46597   0.92239   0.02132
C          C       0.23813   0.30046   0.68083   0.10094
C          C       0.28864   0.43366   0.83631   0.09752
C          C       0.48168   0.50681   0.82871  -0.18548
C          C       0.05604   0.72523   0.62550   0.07252
C          C       0.91237   0.56192   0.57649   0.56834
C          C       0.00739   0.46248   0.92676   0.03358
C          C       0.79463   0.96572   0.58799   0.64131
C          C       0.92174   0.87639   0.65786  -0.34068
C          C       0.40679   0.67558   0.24483  -0.17681
C          C       0.79928   0.53789   0.25547   0.07394
C          C       0.30317   0.54024   0.08162   0.02095
C          C       0.55961   0.70695   0.32301   0.10128
C          C       0.45440   0.57289   0.16766   0.09822
C          C       0.65500   0.49974   0.17526  -0.18517
C          C       0.43274   0.28253   0.37829   0.07246
C          C       0.33768   0.44561   0.42733   0.56861
C          C       0.08268   0.54340   0.07733   0.03510
C          C       0.20915   0.04178   0.41566   0.64136
C          C       0.26638   0.13121   0.34580  -0.34249
C          C       0.37312   0.50317   0.00199  -0.13077
N          N       0.42827   0.36381   0.67541  -0.20937
N          N       0.18428   0.77430   0.56640  -0.60432
N          N       0.75517   0.64367   0.32841  -0.21005
N          N       0.61987   0.23349   0.43746  -0.60486
N          N       0.93622   0.50284   0.00206  -0.26117
O          O       0.82393   0.48154   0.62198  -0.55393
O          O       0.70918   0.10329   0.62233  -0.57885
O          O       0.77854   0.90583   0.50570  -0.55706
O          O       0.89256   0.51949   0.49292  -0.52329
O          O       0.20343   0.52571   0.38185  -0.55328
O          O       0.09057   0.90359   0.38130  -0.57810
O          O       0.27417   0.10222   0.49796  -0.55711
O          O       0.40144   0.48817   0.51089  -0.52381

